1B0L_receptor__107735_ligand_vina_out
     RDKit          3D

  9  8  0  0  0  0  0  0  0  0999 V2000
  -28.0040   13.2960   -0.8520 C   0  0  0  0  0  0  0  0  0  0  0  0
  -26.7050   12.9320   -1.5030 C   0  0  0  0  0  0  0  0  0  0  0  0
  -26.2400   11.8010   -1.5410 O   0  0  0  0  0  0  0  0  0  0  0  0
  -25.8620   13.9760   -2.1740 C   0  0  0  0  0  0  0  0  0  0  0  0
  -26.1690   15.1790   -1.9260 O   0  0  0  0  0  0  0  0  0  0  0  0
  -24.9370   13.5350   -2.9150 O   0  0  0  0  0  0  0  0  0  0  0  0
  -27.8880   13.2635    0.2414 H   0  0  0  0  0  0  0  0  0  0  0  0
  -28.2966   14.3107   -1.1597 H   0  0  0  0  0  0  0  0  0  0  0  0
  -28.7813   12.5811   -1.1597 H   0  0  0  0  0  0  0  0  0  0  0  0
  1  2  1  0
  2  3  2  0
  2  4  1  0
  4  5  2  0
  4  6  1  0
  1  7  1  0
  1  8  1  0
  1  9  1  0
M  CHG  1   6  -1
M  END
>  <meeko>  (1) 
{"is_sidechain": [false], "free_energy": -3.9}

$$$$
1B0L_receptor__107735_ligand_vina_out
     RDKit          3D

  9  8  0  0  0  0  0  0  0  0999 V2000
  -27.9930   13.4440   -0.7810 C   0  0  0  0  0  0  0  0  0  0  0  0
  -26.8400   13.9800   -1.5720 C   0  0  0  0  0  0  0  0  0  0  0  0
  -26.5200   15.1590   -1.6200 O   0  0  0  0  0  0  0  0  0  0  0  0
  -25.9740   13.0640   -2.3870 C   0  0  0  0  0  0  0  0  0  0  0  0
  -25.9770   11.8470   -2.0410 O   0  0  0  0  0  0  0  0  0  0  0  0
  -25.3370   13.6150   -3.3300 O   0  0  0  0  0  0  0  0  0  0  0  0
  -27.7786   13.5437    0.2933 H   0  0  0  0  0  0  0  0  0  0  0  0
  -28.9023   14.0117   -1.0276 H   0  0  0  0  0  0  0  0  0  0  0  0
  -28.1451   12.3828   -1.0276 H   0  0  0  0  0  0  0  0  0  0  0  0
  1  2  1  0
  2  3  2  0
  2  4  1  0
  4  5  2  0
  4  6  1  0
  1  7  1  0
  1  8  1  0
  1  9  1  0
M  CHG  1   6  -1
M  END
>  <meeko>  (2) 
{"is_sidechain": [false], "free_energy": -3.9}

$$$$
1B0L_receptor__107735_ligand_vina_out
     RDKit          3D

  9  8  0  0  0  0  0  0  0  0999 V2000
  -32.5300   19.5780    5.0560 C   0  0  0  0  0  0  0  0  0  0  0  0
  -33.4550   20.6000    4.4700 C   0  0  0  0  0  0  0  0  0  0  0  0
  -33.3030   21.1300    3.3780 O   0  0  0  0  0  0  0  0  0  0  0  0
  -34.6730   21.0540    5.2200 C   0  0  0  0  0  0  0  0  0  0  0  0
  -34.8380   20.5470    6.3680 O   0  0  0  0  0  0  0  0  0  0  0  0
  -35.4010   21.8950    4.6170 O   0  0  0  0  0  0  0  0  0  0  0  0
  -32.5758   19.6286    6.1539 H   0  0  0  0  0  0  0  0  0  0  0  0
  -32.8333   18.5747    4.7222 H   0  0  0  0  0  0  0  0  0  0  0  0
  -31.5015   19.7801    4.7222 H   0  0  0  0  0  0  0  0  0  0  0  0
  1  2  1  0
  2  3  2  0
  2  4  1  0
  4  5  2  0
  4  6  1  0
  1  7  1  0
  1  8  1  0
  1  9  1  0
M  CHG  1   6  -1
M  END
>  <meeko>  (3) 
{"is_sidechain": [false], "free_energy": -3.7}

$$$$
1B0L_receptor__107735_ligand_vina_out
     RDKit          3D

  9  8  0  0  0  0  0  0  0  0999 V2000
  -32.1470   18.6670    5.2060 C   0  0  0  0  0  0  0  0  0  0  0  0
  -32.9920   19.8420    5.5900 C   0  0  0  0  0  0  0  0  0  0  0  0
  -33.7570   19.8650    6.5440 O   0  0  0  0  0  0  0  0  0  0  0  0
  -32.9470   21.1150    4.7960 C   0  0  0  0  0  0  0  0  0  0  0  0
  -32.3100   22.0740    5.3210 O   0  0  0  0  0  0  0  0  0  0  0  0
  -33.5540   21.0840    3.6860 O   0  0  0  0  0  0  0  0  0  0  0  0
  -31.7848   18.1634    6.1144 H   0  0  0  0  0  0  0  0  0  0  0  0
  -32.7469   17.9629    4.6108 H   0  0  0  0  0  0  0  0  0  0  0  0
  -31.2886   19.0116    4.6108 H   0  0  0  0  0  0  0  0  0  0  0  0
  1  2  1  0
  2  3  2  0
  2  4  1  0
  4  5  2  0
  4  6  1  0
  1  7  1  0
  1  8  1  0
  1  9  1  0
M  CHG  1   6  -1
M  END
>  <meeko>  (4) 
{"is_sidechain": [false], "free_energy": -3.7}

$$$$
1B0L_receptor__107735_ligand_vina_out
     RDKit          3D

  9  8  0  0  0  0  0  0  0  0999 V2000
  -32.0320   20.4610    6.8750 C   0  0  0  0  0  0  0  0  0  0  0  0
  -32.7550   21.1670    5.7700 C   0  0  0  0  0  0  0  0  0  0  0  0
  -33.2610   22.2770    5.8680 O   0  0  0  0  0  0  0  0  0  0  0  0
  -32.9090   20.5290    4.4200 C   0  0  0  0  0  0  0  0  0  0  0  0
  -32.3040   19.4300    4.2550 O   0  0  0  0  0  0  0  0  0  0  0  0
  -33.6290   21.1650    3.5970 O   0  0  0  0  0  0  0  0  0  0  0  0
  -32.4025   20.8228    7.8455 H   0  0  0  0  0  0  0  0  0  0  0  0
  -32.2087   19.3782    6.7956 H   0  0  0  0  0  0  0  0  0  0  0  0
  -30.9537   20.6634    6.7956 H   0  0  0  0  0  0  0  0  0  0  0  0
  1  2  1  0
  2  3  2  0
  2  4  1  0
  4  5  2  0
  4  6  1  0
  1  7  1  0
  1  8  1  0
  1  9  1  0
M  CHG  1   6  -1
M  END
>  <meeko>  (5) 
{"is_sidechain": [false], "free_energy": -3.6}

$$$$
1B0L_receptor__107735_ligand_vina_out
     RDKit          3D

  9  8  0  0  0  0  0  0  0  0999 V2000
  -33.1930   25.3150    7.4620 C   0  0  0  0  0  0  0  0  0  0  0  0
  -32.2440   24.2180    7.8310 C   0  0  0  0  0  0  0  0  0  0  0  0
  -31.4510   24.2690    8.7610 O   0  0  0  0  0  0  0  0  0  0  0  0
  -32.2060   22.9370    7.0500 C   0  0  0  0  0  0  0  0  0  0  0  0
  -33.1630   22.7530    6.2420 O   0  0  0  0  0  0  0  0  0  0  0  0
  -31.2190   22.1830    7.2880 O   0  0  0  0  0  0  0  0  0  0  0  0
  -33.5928   25.7771    8.3767 H   0  0  0  0  0  0  0  0  0  0  0  0
  -32.6626   26.0747    6.8691 H   0  0  0  0  0  0  0  0  0  0  0  0
  -34.0211   24.8995    6.8691 H   0  0  0  0  0  0  0  0  0  0  0  0
  1  2  1  0
  2  3  2  0
  2  4  1  0
  4  5  2  0
  4  6  1  0
  1  7  1  0
  1  8  1  0
  1  9  1  0
M  CHG  1   6  -1
M  END
>  <meeko>  (6) 
{"is_sidechain": [false], "free_energy": -3.6}

$$$$
1B0L_receptor__107735_ligand_vina_out
     RDKit          3D

  9  8  0  0  0  0  0  0  0  0999 V2000
  -38.9190   22.5960    7.7350 C   0  0  0  0  0  0  0  0  0  0  0  0
  -40.1910   21.8220    7.5710 C   0  0  0  0  0  0  0  0  0  0  0  0
  -41.3040   22.3240    7.4940 O   0  0  0  0  0  0  0  0  0  0  0  0
  -40.1750   20.3240    7.4870 C   0  0  0  0  0  0  0  0  0  0  0  0
  -41.2960   19.7680    7.2990 O   0  0  0  0  0  0  0  0  0  0  0  0
  -39.0380   19.7840    7.6150 O   0  0  0  0  0  0  0  0  0  0  0  0
  -38.7046   22.7264    8.8060 H   0  0  0  0  0  0  0  0  0  0  0  0
  -38.0923   22.0477    7.2597 H   0  0  0  0  0  0  0  0  0  0  0  0
  -39.0260   23.5822    7.2597 H   0  0  0  0  0  0  0  0  0  0  0  0
  1  2  1  0
  2  3  2  0
  2  4  1  0
  4  5  2  0
  4  6  1  0
  1  7  1  0
  1  8  1  0
  1  9  1  0
M  CHG  1   6  -1
M  END
>  <meeko>  (7) 
{"is_sidechain": [false], "free_energy": -3.6}

$$$$
1B0L_receptor__107735_ligand_vina_out
     RDKit          3D

  9  8  0  0  0  0  0  0  0  0999 V2000
  -26.7520   12.0220   -3.5060 C   0  0  0  0  0  0  0  0  0  0  0  0
  -26.0150   13.0620   -2.7200 C   0  0  0  0  0  0  0  0  0  0  0  0
  -24.8350   13.3430   -2.8740 O   0  0  0  0  0  0  0  0  0  0  0  0
  -26.7100   13.8540   -1.6510 C   0  0  0  0  0  0  0  0  0  0  0  0
  -26.5170   15.1050   -1.6760 O   0  0  0  0  0  0  0  0  0  0  0  0
  -27.4120   13.1790   -0.8440 O   0  0  0  0  0  0  0  0  0  0  0  0
  -27.2472   11.3232   -2.8157 H   0  0  0  0  0  0  0  0  0  0  0  0
  -27.5079   12.5087   -4.1398 H   0  0  0  0  0  0  0  0  0  0  0  0
  -26.0423   11.4701   -4.1398 H   0  0  0  0  0  0  0  0  0  0  0  0
  1  2  1  0
  2  3  2  0
  2  4  1  0
  4  5  2  0
  4  6  1  0
  1  7  1  0
  1  8  1  0
  1  9  1  0
M  CHG  1   6  -1
M  END
>  <meeko>  (8) 
{"is_sidechain": [false], "free_energy": -3.6}

$$$$
1B0L_receptor__107735_ligand_vina_out
     RDKit          3D

  9  8  0  0  0  0  0  0  0  0999 V2000
  -38.0120   21.9300    7.6550 C   0  0  0  0  0  0  0  0  0  0  0  0
  -38.9200   20.7590    7.4360 C   0  0  0  0  0  0  0  0  0  0  0  0
  -38.5460   19.5980    7.3450 O   0  0  0  0  0  0  0  0  0  0  0  0
  -40.4030   20.9480    7.3100 C   0  0  0  0  0  0  0  0  0  0  0  0
  -40.7990   22.1420    7.1700 O   0  0  0  0  0  0  0  0  0  0  0  0
  -41.0920   19.8880    7.3570 O   0  0  0  0  0  0  0  0  0  0  0  0
  -37.8826   22.0968    8.7346 H   0  0  0  0  0  0  0  0  0  0  0  0
  -37.0335   21.7262    7.1956 H   0  0  0  0  0  0  0  0  0  0  0  0
  -38.4530   22.8269    7.1956 H   0  0  0  0  0  0  0  0  0  0  0  0
  1  2  1  0
  2  3  2  0
  2  4  1  0
  4  5  2  0
  4  6  1  0
  1  7  1  0
  1  8  1  0
  1  9  1  0
M  CHG  1   6  -1
M  END
>  <meeko>  (9) 
{"is_sidechain": [false], "free_energy": -3.4}

$$$$
