107735
  -OEChem-09252604383D

  9  8  0     0  0  0  0  0  0999 V2000
   -1.0081   -1.3404    0.0000 O   0  0  0  0  0  0  0  0  0  0  0  0
    1.5096   -0.9176   -0.0002 O   0  5  0  0  0  0  0  0  0  0  0  0
    1.1172    1.3281    0.0000 O   0  0  0  0  0  0  0  0  0  0  0  0
   -1.6870    0.9748   -0.0002 C   0  0  0  0  0  0  0  0  0  0  0  0
   -0.7043   -0.1553    0.0003 C   0  0  0  0  0  0  0  0  0  0  0  0
    0.7726    0.1104    0.0002 C   0  0  0  0  0  0  0  0  0  0  0  0
   -1.5482    1.5854    0.8954 H   0  0  0  0  0  0  0  0  0  0  0  0
   -1.5495    1.5833   -0.8974 H   0  0  0  0  0  0  0  0  0  0  0  0
   -2.7044    0.5739    0.0011 H   0  0  0  0  0  0  0  0  0  0  0  0
  1  5  2  0  0  0  0
  2  6  1  0  0  0  0
  3  6  2  0  0  0  0
  4  5  1  0  0  0  0
  4  7  1  0  0  0  0
  4  8  1  0  0  0  0
  4  9  1  0  0  0  0
  5  6  1  0  0  0  0
M  CHG  1   2  -1
M  END
> <PUBCHEM_COMPOUND_CID>
107735

> <PUBCHEM_CONFORMER_RMSD>
0.4

> <PUBCHEM_CONFORMER_DIVERSEORDER>
1

> <PUBCHEM_MMFF94_PARTIAL_CHARGES>
6
1 -0.57
2 -0.9
3 -0.9
4 0.06
5 0.36
6 0.95

> <PUBCHEM_EFFECTIVE_ROTOR_COUNT>
1

> <PUBCHEM_PHARMACOPHORE_FEATURES>
4
1 1 acceptor
1 2 acceptor
1 3 acceptor
3 2 3 6 anion

> <PUBCHEM_HEAVY_ATOM_COUNT>
6

> <PUBCHEM_ATOM_DEF_STEREO_COUNT>
0

> <PUBCHEM_ATOM_UDEF_STEREO_COUNT>
0

> <PUBCHEM_BOND_DEF_STEREO_COUNT>
0

> <PUBCHEM_BOND_UDEF_STEREO_COUNT>
0

> <PUBCHEM_ISOTOPIC_ATOM_COUNT>
0

> <PUBCHEM_COMPONENT_COUNT>
1

> <PUBCHEM_CACTVS_TAUTO_COUNT>
2

> <PUBCHEM_CONFORMER_ID>
0001A4D700000001

> <PUBCHEM_MMFF94_ENERGY>
5.162

> <PUBCHEM_FEATURE_SELFOVERLAP>
20.368

> <PUBCHEM_SHAPE_FINGERPRINT>
139733 1 9222646904862920770
16714656 1 18050012090801520318
20096714 4 18410013204299121017
21015797 1 9294474705043999779
21040471 1 18410575050387950945
24536 1 18338502144733421605

> <PUBCHEM_SHAPE_MULTIPOLES>
105.87
1.96
1.36
0.56
0.19
0.02
0
-0.21
0
0.01
0
0.03
-0.01
0

> <PUBCHEM_SHAPE_SELFOVERLAP>
198.904

> <PUBCHEM_SHAPE_VOLUME>
65.8

> <PUBCHEM_COORDINATE_TYPE>
2
5
10

$$$$
