6WJL_receptor__107735_ligand_vina_out
     RDKit          3D

  9  8  0  0  0  0  0  0  0  0999 V2000
  -12.3150  -17.0890   36.3820 C   0  0  0  0  0  0  0  0  0  0  0  0
  -13.2190  -17.7830   37.3540 C   0  0  0  0  0  0  0  0  0  0  0  0
  -13.8010  -17.2300   38.2770 O   0  0  0  0  0  0  0  0  0  0  0  0
  -13.4760  -19.2580   37.2490 C   0  0  0  0  0  0  0  0  0  0  0  0
  -13.5360  -19.7270   36.0750 O   0  0  0  0  0  0  0  0  0  0  0  0
  -13.6040  -19.8670   38.3500 O   0  0  0  0  0  0  0  0  0  0  0  0
  -11.5599  -16.5093   36.9331 H   0  0  0  0  0  0  0  0  0  0  0  0
  -11.8137  -17.8364   35.7495 H   0  0  0  0  0  0  0  0  0  0  0  0
  -12.9075  -16.4116   35.7495 H   0  0  0  0  0  0  0  0  0  0  0  0
  1  2  1  0
  2  3  2  0
  2  4  1  0
  4  5  2  0
  4  6  1  0
  1  7  1  0
  1  8  1  0
  1  9  1  0
M  CHG  1   6  -1
M  END
>  <meeko>  (1) 
{"is_sidechain": [false], "free_energy": -2.8}

$$$$
6WJL_receptor__107735_ligand_vina_out
     RDKit          3D

  9  8  0  0  0  0  0  0  0  0999 V2000
  -13.3850  -17.6710   35.3120 C   0  0  0  0  0  0  0  0  0  0  0  0
  -13.4950  -18.9080   36.1490 C   0  0  0  0  0  0  0  0  0  0  0  0
  -13.4560  -20.0490   35.7100 O   0  0  0  0  0  0  0  0  0  0  0  0
  -13.6670  -18.8180   37.6370 C   0  0  0  0  0  0  0  0  0  0  0  0
  -13.4990  -19.8950   38.2800 O   0  0  0  0  0  0  0  0  0  0  0  0
  -13.9610  -17.6710   38.0820 O   0  0  0  0  0  0  0  0  0  0  0  0
  -13.3067  -16.7908   35.9671 H   0  0  0  0  0  0  0  0  0  0  0  0
  -12.4891  -17.7364   34.6771 H   0  0  0  0  0  0  0  0  0  0  0  0
  -14.2784  -17.5773   34.6771 H   0  0  0  0  0  0  0  0  0  0  0  0
  1  2  1  0
  2  3  2  0
  2  4  1  0
  4  5  2  0
  4  6  1  0
  1  7  1  0
  1  8  1  0
  1  9  1  0
M  CHG  1   6  -1
M  END
>  <meeko>  (2) 
{"is_sidechain": [false], "free_energy": -2.7}

$$$$
6WJL_receptor__107735_ligand_vina_out
     RDKit          3D

  9  8  0  0  0  0  0  0  0  0999 V2000
    1.0440  -23.4820   27.3030 C   0  0  0  0  0  0  0  0  0  0  0  0
    1.6860  -23.0370   28.5810 C   0  0  0  0  0  0  0  0  0  0  0  0
    1.5750  -23.6160   29.6530 O   0  0  0  0  0  0  0  0  0  0  0  0
    2.5380  -21.8020   28.6250 C   0  0  0  0  0  0  0  0  0  0  0  0
    1.9980  -20.7410   28.1960 O   0  0  0  0  0  0  0  0  0  0  0  0
    3.7050  -21.9630   29.0870 O   0  0  0  0  0  0  0  0  0  0  0  0
    0.1596  -24.0950   27.5310 H   0  0  0  0  0  0  0  0  0  0  0  0
    0.7388  -22.6007   26.7197 H   0  0  0  0  0  0  0  0  0  0  0  0
    1.7621  -24.0770   26.7197 H   0  0  0  0  0  0  0  0  0  0  0  0
  1  2  1  0
  2  3  2  0
  2  4  1  0
  4  5  2  0
  4  6  1  0
  1  7  1  0
  1  8  1  0
  1  9  1  0
M  CHG  1   6  -1
M  END
>  <meeko>  (3) 
{"is_sidechain": [false], "free_energy": -2.5}

$$$$
6WJL_receptor__107735_ligand_vina_out
     RDKit          3D

  9  8  0  0  0  0  0  0  0  0999 V2000
  -13.2330  -18.9600   35.0390 C   0  0  0  0  0  0  0  0  0  0  0  0
  -12.9110  -18.1240   36.2390 C   0  0  0  0  0  0  0  0  0  0  0  0
  -12.1930  -17.1340   36.2230 O   0  0  0  0  0  0  0  0  0  0  0  0
  -13.4720  -18.4660   37.5880 C   0  0  0  0  0  0  0  0  0  0  0  0
  -13.9330  -17.4960   38.2580 O   0  0  0  0  0  0  0  0  0  0  0  0
  -13.4200  -19.6900   37.9040 O   0  0  0  0  0  0  0  0  0  0  0  0
  -13.6105  -19.9402   35.3656 H   0  0  0  0  0  0  0  0  0  0  0  0
  -14.0006  -18.4541   34.4350 H   0  0  0  0  0  0  0  0  0  0  0  0
  -12.3244  -19.0998   34.4350 H   0  0  0  0  0  0  0  0  0  0  0  0
  1  2  1  0
  2  3  2  0
  2  4  1  0
  4  5  2  0
  4  6  1  0
  1  7  1  0
  1  8  1  0
  1  9  1  0
M  CHG  1   6  -1
M  END
>  <meeko>  (4) 
{"is_sidechain": [false], "free_energy": -2.5}

$$$$
6WJL_receptor__107735_ligand_vina_out
     RDKit          3D

  9  8  0  0  0  0  0  0  0  0999 V2000
    3.1290  -24.1670   26.1970 C   0  0  0  0  0  0  0  0  0  0  0  0
    2.1740  -23.8900   27.3170 C   0  0  0  0  0  0  0  0  0  0  0  0
    0.9560  -23.8800   27.2040 O   0  0  0  0  0  0  0  0  0  0  0  0
    2.6750  -23.5950   28.7010 C   0  0  0  0  0  0  0  0  0  0  0  0
    3.3210  -22.5150   28.8380 O   0  0  0  0  0  0  0  0  0  0  0  0
    2.3930  -24.4630   29.5770 O   0  0  0  0  0  0  0  0  0  0  0  0
    4.1076  -24.4509   26.6114 H   0  0  0  0  0  0  0  0  0  0  0  0
    2.7402  -24.9894   25.5785 H   0  0  0  0  0  0  0  0  0  0  0  0
    3.2406  -23.2642   25.5785 H   0  0  0  0  0  0  0  0  0  0  0  0
  1  2  1  0
  2  3  2  0
  2  4  1  0
  4  5  2  0
  4  6  1  0
  1  7  1  0
  1  8  1  0
  1  9  1  0
M  CHG  1   6  -1
M  END
>  <meeko>  (5) 
{"is_sidechain": [false], "free_energy": -2.5}

$$$$
6WJL_receptor__107735_ligand_vina_out
     RDKit          3D

  9  8  0  0  0  0  0  0  0  0999 V2000
  -15.5030  -19.2950   39.0230 C   0  0  0  0  0  0  0  0  0  0  0  0
  -14.8720  -18.4910   37.9290 C   0  0  0  0  0  0  0  0  0  0  0  0
  -15.3300  -17.4480   37.4810 O   0  0  0  0  0  0  0  0  0  0  0  0
  -13.5870  -18.9330   37.2910 C   0  0  0  0  0  0  0  0  0  0  0  0
  -13.6890  -19.8350   36.4100 O   0  0  0  0  0  0  0  0  0  0  0  0
  -12.5450  -18.3510   37.7080 O   0  0  0  0  0  0  0  0  0  0  0  0
  -15.1897  -18.8958   39.9989 H   0  0  0  0  0  0  0  0  0  0  0  0
  -16.5980  -19.2355   38.9369 H   0  0  0  0  0  0  0  0  0  0  0  0
  -15.1849  -20.3445   38.9369 H   0  0  0  0  0  0  0  0  0  0  0  0
  1  2  1  0
  2  3  2  0
  2  4  1  0
  4  5  2  0
  4  6  1  0
  1  7  1  0
  1  8  1  0
  1  9  1  0
M  CHG  1   6  -1
M  END
>  <meeko>  (6) 
{"is_sidechain": [false], "free_energy": -2.4}

$$$$
6WJL_receptor__107735_ligand_vina_out
     RDKit          3D

  9  8  0  0  0  0  0  0  0  0999 V2000
  -11.6380  -16.5230   36.2550 C   0  0  0  0  0  0  0  0  0  0  0  0
  -12.6360  -17.6400   36.2410 C   0  0  0  0  0  0  0  0  0  0  0  0
  -12.9980  -18.2360   35.2350 O   0  0  0  0  0  0  0  0  0  0  0  0
  -13.2790  -18.1130   37.5110 C   0  0  0  0  0  0  0  0  0  0  0  0
  -13.1770  -19.3510   37.7560 O   0  0  0  0  0  0  0  0  0  0  0  0
  -13.8530  -17.2180   38.1970 O   0  0  0  0  0  0  0  0  0  0  0  0
  -11.4002  -16.2568   37.2955 H   0  0  0  0  0  0  0  0  0  0  0  0
  -10.7207  -16.8444   35.7399 H   0  0  0  0  0  0  0  0  0  0  0  0
  -12.0602  -15.6476   35.7399 H   0  0  0  0  0  0  0  0  0  0  0  0
  1  2  1  0
  2  3  2  0
  2  4  1  0
  4  5  2  0
  4  6  1  0
  1  7  1  0
  1  8  1  0
  1  9  1  0
M  CHG  1   6  -1
M  END
>  <meeko>  (7) 
{"is_sidechain": [false], "free_energy": -2.4}

$$$$
6WJL_receptor__107735_ligand_vina_out
     RDKit          3D

  9  8  0  0  0  0  0  0  0  0999 V2000
    2.2040  -20.7620   29.2350 C   0  0  0  0  0  0  0  0  0  0  0  0
    2.3360  -21.9040   28.2760 C   0  0  0  0  0  0  0  0  0  0  0  0
    2.9670  -21.8630   27.2280 O   0  0  0  0  0  0  0  0  0  0  0  0
    1.6730  -23.2220   28.5530 C   0  0  0  0  0  0  0  0  0  0  0  0
    1.5490  -23.5330   29.7730 O   0  0  0  0  0  0  0  0  0  0  0  0
    1.3130  -23.8750   27.5310 O   0  0  0  0  0  0  0  0  0  0  0  0
    2.2480  -21.1422   30.2663 H   0  0  0  0  0  0  0  0  0  0  0  0
    3.0257  -20.0492   29.0717 H   0  0  0  0  0  0  0  0  0  0  0  0
    1.2413  -20.2555   29.0717 H   0  0  0  0  0  0  0  0  0  0  0  0
  1  2  1  0
  2  3  2  0
  2  4  1  0
  4  5  2  0
  4  6  1  0
  1  7  1  0
  1  8  1  0
  1  9  1  0
M  CHG  1   6  -1
M  END
>  <meeko>  (8) 
{"is_sidechain": [false], "free_energy": -2.2}

$$$$
6WJL_receptor__107735_ligand_vina_out
     RDKit          3D

  9  8  0  0  0  0  0  0  0  0999 V2000
  -15.7260  -18.2930   35.4410 C   0  0  0  0  0  0  0  0  0  0  0  0
  -14.8370  -18.1280   36.6350 C   0  0  0  0  0  0  0  0  0  0  0  0
  -15.0170  -17.3110   37.5270 O   0  0  0  0  0  0  0  0  0  0  0  0
  -13.6220  -18.9900   36.8150 C   0  0  0  0  0  0  0  0  0  0  0  0
  -12.8320  -18.6480   37.7430 O   0  0  0  0  0  0  0  0  0  0  0  0
  -13.5240  -19.9650   36.0150 O   0  0  0  0  0  0  0  0  0  0  0  0
  -16.7565  -18.4843   35.7748 H   0  0  0  0  0  0  0  0  0  0  0  0
  -15.7011  -17.3749   34.8356 H   0  0  0  0  0  0  0  0  0  0  0  0
  -15.3733  -19.1410   34.8356 H   0  0  0  0  0  0  0  0  0  0  0  0
  1  2  1  0
  2  3  2  0
  2  4  1  0
  4  5  2  0
  4  6  1  0
  1  7  1  0
  1  8  1  0
  1  9  1  0
M  CHG  1   6  -1
M  END
>  <meeko>  (9) 
{"is_sidechain": [false], "free_energy": -2.1}

$$$$
